src/test/resources/netPositionsData/20190618_0030_2D2_BE0.UCT
##C 2007.05.01

##N
##ZBE
BSLACK11 SLACK        0 2 400.00   10.00   10.00   10.00   10.00   20.00   20.00
BLOAD111 LOAD         1 2 400.00   20.00   20.00  347.01   20.00   20.00   20.00
BAC_LO11 SHADOW       1 2 400.00   10.00   10.00   10.00   10.00 -347.01   20.00
##ZXX
XAC_LO11 CORE         1 0 400.00   10.00   10.00   10.00   10.00   20.00   20.00
##L
BAC_LO11 XAC_LO11 1 0  20.00  20.00   20.00   5000
##T
##R
